V1 001 0 6
R1 001 0 280
R2 001 0 280
R3 001 002 140
R4 002 0 140
.backanno
.end