V1 N001 0 6
R1 N001 0 280
R2 N001 0 280
R3 N001 N002 140
R4 N002 0 140
.backanno
.end