V1 001 002 32
V2 003 0 20
R1 002 0 2
R2 001 003 4
R3 001 0 8
.backanno
.end
.swarthmore_case_1