V1 001 002 32
V2 0 003 20
R1 001 0 2
R2 002 003 4
R3 002 0 8
.backanno
.end
.swarthmore_case_1